Version 4
SHEET 1 1880 680
WIRE 816 -112 816 -144
WIRE 896 -112 816 -112
WIRE 896 -64 896 -112
WIRE 896 -64 816 -64
WIRE 768 -32 704 -32
WIRE 816 0 816 -16
WIRE 896 48 896 -64
WIRE 896 48 816 48
WIRE 528 64 528 -32
WIRE 272 80 64 80
WIRE 768 80 704 80
WIRE 704 144 704 80
WIRE 704 144 640 144
WIRE 816 144 816 96
WIRE 992 144 816 144
WIRE -80 160 -80 80
WIRE 64 160 64 80
WIRE 896 192 816 192
WIRE 704 224 704 144
WIRE 768 224 704 224
WIRE 816 272 816 240
WIRE -80 320 -80 240
WIRE 64 320 64 240
WIRE 896 320 896 192
WIRE 896 320 816 320
WIRE 528 352 528 96
WIRE 768 352 704 352
WIRE 816 400 816 368
WIRE 896 400 896 320
WIRE 896 400 816 400
WIRE 816 464 816 400
FLAG -80 320 0
FLAG 64 320 0
FLAG 816 464 0
FLAG 400 176 0
FLAG -80 80 VDD
FLAG 400 -16 VDD
FLAG 816 -144 VDD
FLAG 640 144 osc
FLAG 528 -32 bvp
FLAG 704 -32 bvp
FLAG 528 352 bvn
FLAG 704 352 bvn
FLAG 992 144 osc
SYMBOL Bias 400 80 R0
SYMATTR InstName X1
SYMBOL pmos4 768 -112 R0
WINDOW 3 -65 46 Left 2
WINDOW 123 56 60 Left 2
SYMATTR Value2 l={Lp1} w={Wp1}
SYMATTR InstName M1
SYMBOL pmos4 768 0 R0
WINDOW 3 -65 48 Left 2
WINDOW 123 49 68 Left 2
SYMATTR Value2 l={Lp2} w={Wp2}
SYMATTR InstName M2
SYMBOL nmos4 768 144 R0
WINDOW 3 -66 48 Left 2
WINDOW 123 49 66 Left 2
SYMATTR Value2 l={Ln3} w={Wn3}
SYMATTR InstName M3
SYMBOL nmos4 768 272 R0
WINDOW 3 -66 50 Left 2
WINDOW 123 51 61 Left 2
SYMATTR Value2 l={Ln4} w={Wn4}
SYMATTR InstName M4
SYMBOL voltage -80 144 R0
SYMATTR InstName VDD
SYMATTR Value {Vs}
SYMBOL voltage 64 144 R0
SYMATTR InstName Vin
SYMATTR Value {Vctr}
TEXT -88 432 Left 2 !.param Vs = 1.1
TEXT -88 464 Left 2 !.param Vctr = 0.29
TEXT -88 496 Left 2 !.include 65nmptmcmos_models.txt
TEXT -88 520 Left 2 !.op
TEXT 1176 -96 Left 2 !.param Lp1 = 65n
TEXT 1176 -72 Left 2 !.param Wp1 = 300n
TEXT 1176 32 Left 2 !.param Lp2 = 65n
TEXT 1176 56 Left 2 !.param Wp2 = 300n
TEXT 1176 168 Left 2 !.param Ln3 = 65n
TEXT 1176 200 Left 2 !.param Wn3 = 200n
TEXT 1176 280 Left 2 !.param Ln4 = 65n
TEXT 1176 304 Left 2 !.param Wn4 = 200n
