Version 4
SHEET 1 1664 680
WIRE 496 16 -96 16
WIRE -96 144 -96 16
WIRE 336 144 112 144
WIRE -96 240 -96 224
WIRE 112 240 112 224
FLAG -96 240 0
FLAG 112 240 0
FLAG 496 272 0
FLAG -96 16 VDD
FLAG 112 144 VINVCO
FLAG 640 112 OSC
FLAG 640 176 VS
SYMBOL VCO_9 496 144 R0
SYMATTR InstName X1
SYMBOL voltage 112 128 R0
WINDOW 0 112 7 Left 1
WINDOW 123 0 0 Left 0
WINDOW 39 0 0 Left 0
SYMATTR InstName VINVCO
SYMATTR Value {Vctr}
SYMBOL voltage -96 128 R0
WINDOW 123 0 0 Left 0
WINDOW 39 0 0 Left 0
SYMATTR InstName VDD
SYMATTR Value {Vs}
TEXT 1248 -88 Left 2 !.tran {Tmax} uic
TEXT 1256 168 Left 2 !.include 65nmptmcmos_models.txt
TEXT 1248 -184 Left 2 !.param Vs 1.1
TEXT 1248 -152 Left 2 !.param Vctr 0.29
TEXT 1248 -120 Left 2 !.param Tmax 200n
TEXT 896 176 Left 2 !.param Wp 300n
TEXT 896 208 Left 2 !.param Wn 200n
TEXT 1248 -216 Left 2 ;Top Level Param
TEXT 904 -216 Left 2 ;Subcircuit Param
TEXT 904 -184 Left 2 !.param Lp 65n
TEXT 904 -152 Left 2 !.param Ln 65n
TEXT 896 136 Left 2 ;Variable Param
TEXT 904 -120 Left 2 !.param R 10k
TEXT 896 240 Left 2 !.param Wnb 1u
TEXT 1256 136 Left 2 ;Library File
