Version 4
SHEET 1 1300 688
WIRE 816 -288 704 -288
WIRE 976 -288 816 -288
WIRE 208 496 208 416
FLAG 816 -288 OSC_FB
FLAG 720 496 N1
FLAG -48 96 N1
FLAG 720 96 N2
FLAG -64 -288 N2
FLAG -48 496 OSC_FB
FLAG -368 80 BVP
FLAG 96 32 BVP
FLAG 352 32 BVP
FLAG 608 32 BVP
FLAG 592 -352 BVP
FLAG 336 -352 BVP
FLAG 80 -352 BVP
FLAG 96 432 BVP
FLAG 352 432 BVP
FLAG 608 432 BVP
FLAG -368 112 BVN
FLAG 96 160 BVN
FLAG 352 160 BVN
FLAG 608 160 BVN
FLAG 592 -224 BVN
FLAG 336 -224 BVN
FLAG 80 -224 BVN
FLAG 96 560 BVN
FLAG 352 560 BVN
FLAG 608 560 BVN
FLAG -496 192 GND
IOPIN -496 192 In
FLAG 32 -208 GND
IOPIN 32 -208 In
FLAG 288 -208 GND
IOPIN 288 -208 In
FLAG 544 -208 GND
IOPIN 544 -208 In
FLAG 1056 -240 GND
IOPIN 1056 -240 In
FLAG 48 176 GND
IOPIN 48 176 In
FLAG 304 176 GND
IOPIN 304 176 In
FLAG 560 176 GND
IOPIN 560 176 In
FLAG 560 576 GND
IOPIN 560 576 In
FLAG 304 576 GND
IOPIN 304 576 In
FLAG 48 576 GND
IOPIN 48 576 In
FLAG 32 -368 VDD
IOPIN 32 -368 In
FLAG 288 -368 VDD
IOPIN 288 -368 In
FLAG 544 -368 VDD
IOPIN 544 -368 In
FLAG 560 16 VDD
IOPIN 560 16 In
FLAG 304 16 VDD
IOPIN 304 16 In
FLAG 48 16 VDD
IOPIN 48 16 In
FLAG 48 416 VDD
IOPIN 48 416 In
FLAG 304 416 VDD
IOPIN 304 416 In
FLAG 560 416 VDD
IOPIN 560 416 In
FLAG 1056 -336 VDD
IOPIN 1056 -336 In
FLAG -496 0 VDD
IOPIN -496 0 In
FLAG 1152 -288 OSC
IOPIN 1152 -288 Out
FLAG -624 96 VINVCO
IOPIN -624 96 In
FLAG 208 416 CSINVOP
IOPIN 208 416 Out
SYMBOL CS_Inv 64 480 R0
SYMATTR InstName X1
SYMBOL CS_Inv 320 480 R0
SYMATTR InstName X2
SYMBOL CS_Inv 576 480 R0
SYMATTR InstName X3
SYMBOL CS_Inv 64 80 R0
SYMATTR InstName X4
SYMBOL CS_Inv 320 80 R0
SYMATTR InstName X5
SYMBOL CS_Inv 576 80 R0
SYMATTR InstName X6
SYMBOL CS_Inv 48 -304 R0
SYMATTR InstName X7
SYMBOL CS_Inv 304 -304 R0
SYMATTR InstName X8
SYMBOL CS_Inv 560 -304 R0
SYMATTR InstName X9
SYMBOL Bias -496 96 R0
SYMATTR InstName X10
SYMBOL Inv 1072 -288 R0
SYMATTR InstName X11
TEXT 944 96 Left 2 !.lib 65nmptmcmos_models.txt
